21
.tmp
C          1.24519       -0.71110       -0.35675
C          2.26668       -1.08445       -1.24184
C          3.42059       -1.71489       -0.76935
C          3.56527       -1.97582        0.59158
C          2.56336       -1.60188        1.48233
C          1.41173       -0.96851        1.01248
H          4.46081       -2.47111        0.95825
H          2.67306       -1.80387        2.54417
H          0.63935       -0.68370        1.72230
C         -0.01184       -0.04196       -0.88269
H          2.17165       -0.89214       -2.30827
H          4.20376       -2.00411       -1.46431
C         -1.28638       -0.75463       -0.40861
C         -0.03033        1.44027       -0.49761
H         -0.00142       -0.09969       -1.97953
H         -1.78860       -0.20123        0.39251
H         -1.99770       -0.83831       -1.23794
H         -1.09426       -1.77092       -0.04734
H          0.02838        1.57833        0.58837
H          0.82057        1.96927       -0.94137
H         -0.94817        1.92425       -0.84727
