12

C                     1.23990000          -0.71300000          -0.38700000         
C                     2.25070000          -1.08150000          -1.25490000         
C                     3.38580000          -1.70360000          -0.76970000         
C                     3.51020000          -1.95670000           0.58360000         
C                     2.49980000          -1.58740000           1.45160000         
C                     1.36660000          -0.96150000           0.96690000         
C                     0.00240000          -0.03490000          -0.91610000         
H                     2.15350000          -0.88370000          -2.31220000         
H                     4.17530000          -1.99210000          -1.44780000         
H                     4.39670000          -2.44340000           0.96270000         
H                     2.59680000          -1.78550000           2.50890000         
H                     0.57710000          -0.67290000           1.64510000         
